    6
-115.71607895
    O    0.70090052    0.09630240   -0.00004426
    H    1.12585974   -0.77843945    0.00005403
    C   -0.74609239   -0.04814419    0.00004316
    H   -1.10930384   -0.56935804   -0.89134674
    H   -1.10929799   -0.56841068    0.89197723
    H   -1.14746357    0.96106375   -0.00049601
